data_image0
_chemical_formula_structural       C80H16In8N32O64
_chemical_formula_sum              "C80 H16 In8 N32 O64"
_cell_length_a       8.61573
_cell_length_b       18.379
_cell_length_c       37.2919
_cell_angle_alpha    90
_cell_angle_beta     89.999
_cell_angle_gamma    90

_space_group_name_H-M_alt    "P 1"
_space_group_IT_number       1

loop_
  _space_group_symop_operation_xyz
  'x, y, z'

loop_
  _atom_site_type_symbol
  _atom_site_label
  _atom_site_symmetry_multiplicity
  _atom_site_fract_x
  _atom_site_fract_y
  _atom_site_fract_z
  _atom_site_occupancy
  C   C1        1.0  0.47529  0.95020  0.63786  1.0000
  C   C2        1.0  0.36914  0.19212  0.64217  1.0000
  C   C3        1.0  0.10606  0.05216  0.58373  1.0000
  C   C4        1.0  0.30516  0.04188  0.71369  1.0000
  C   C5        1.0  0.61258  0.90892  0.38608  1.0000
  C   C6        1.0  0.56795  0.14772  0.39805  1.0000
  C   C7        1.0  0.80694  0.03268  0.46894  1.0000
  C   C8        1.0  0.79932  0.03974  0.32829  1.0000
  C   C9        1.0  0.67074  0.69390  0.63462  1.0000
  C   C10       1.0  0.55932  0.44990  0.63271  1.0000
  C   C11       1.0  0.79572  0.56436  0.55480  1.0000
  C   C12       1.0  0.78521  0.54868  0.69616  1.0000
  C   C13       1.0  0.42101  0.65288  0.37596  1.0000
  C   C14       1.0  0.36375  0.40440  0.39086  1.0000
  C   C15       1.0  0.09785  0.56052  0.44085  1.0000
  C   C16       1.0  0.29429  0.50824  0.31225  1.0000
  C   C17       1.0  0.94767  0.85884  0.13857  1.0000
  C   C18       1.0  0.10511  0.09970  0.13381  1.0000
  C   C19       1.0  0.83848  0.00378  0.06774  1.0000
  C   C20       1.0  0.02405  0.99300  0.20673  1.0000
  C   C21       1.0  0.15149  0.90784  0.91841  1.0000
  C   C22       1.0  0.14614  0.14844  0.91448  1.0000
  C   C23       1.0  0.50655  0.02900  0.95916  1.0000
  C   C24       1.0  0.15456  0.02234  0.84297  1.0000
  C   C25       1.0  0.08073  0.59978  0.12188  1.0000
  C   C26       1.0  0.24096  0.35824  0.11811  1.0000
  C   C27       1.0  0.32240  0.50746  0.04816  1.0000
  C   C28       1.0  0.12985  0.47140  0.18516  1.0000
  C   C29       1.0  0.95055  0.65626  0.89554  1.0000
  C   C30       1.0  0.94700  0.40076  0.89213  1.0000
  C   C31       1.0  0.64493  0.52706  0.93824  1.0000
  C   C32       1.0  0.99330  0.52634  0.81999  1.0000
  C   C33       1.0  0.15776  0.02304  0.80370  1.0000
  C   C34       1.0  0.28542  0.03302  0.78181  1.0000
  C   C35       1.0  0.22289  0.03134  0.74767  1.0000
  C   C36       1.0  0.00010  0.00612  0.24518  1.0000
  C   C37       1.0  0.86311  0.02398  0.26216  1.0000
  C   C38       1.0  0.90465  0.02794  0.29797  1.0000
  C   C39       1.0  0.97875  0.52898  0.78091  1.0000
  C   C40       1.0  0.84265  0.53990  0.76237  1.0000
  C   C41       1.0  0.88796  0.53816  0.72699  1.0000
  C   C42       1.0  0.13947  0.47690  0.22411  1.0000
  C   C43       1.0  0.26836  0.49312  0.24460  1.0000
  C   C44       1.0  0.21025  0.49316  0.27913  1.0000
  C   C45       1.0  0.39262  0.27116  0.64583  1.0000
  C   C46       1.0  0.51216  0.31264  0.63181  1.0000
  C   C47       1.0  0.47237  0.38320  0.64119  1.0000
  C   C48       1.0  0.47616  0.21434  0.39375  1.0000
  C   C49       1.0  0.52663  0.28620  0.39320  1.0000
  C   C50       1.0  0.38925  0.32536  0.39091  1.0000
  C   C51       1.0  0.55279  0.83916  0.37301  1.0000
  C   C52       1.0  0.57100  0.77098  0.38845  1.0000
  C   C53       1.0  0.47403  0.72714  0.36812  1.0000
  C   C54       1.0  0.57248  0.88466  0.64028  1.0000
  C   C55       1.0  0.52173  0.81366  0.63648  1.0000
  C   C56       1.0  0.65561  0.77296  0.63983  1.0000
  C   C57       1.0  0.19166  0.16754  0.13222  1.0000
  C   C58       1.0  0.12499  0.23470  0.12754  1.0000
  C   C59       1.0  0.25014  0.28028  0.12461  1.0000
  C   C60       1.0  0.96856  0.32244  0.89718  1.0000
  C   C61       1.0  0.10438  0.28450  0.90366  1.0000
  C   C62       1.0  0.05302  0.21370  0.90838  1.0000
  C   C63       1.0  0.97256  0.73316  0.90422  1.0000
  C   C64       1.0  0.10906  0.77260  0.90560  1.0000
  C   C65       1.0  0.05918  0.84146  0.91544  1.0000
  C   C66       1.0  0.94101  0.77962  0.13879  1.0000
  C   C67       1.0  0.06505  0.73428  0.13291  1.0000
  C   C68       1.0  0.99754  0.66680  0.12990  1.0000
  C   C69       1.0  0.85694  0.03528  0.50645  1.0000
  C   C70       1.0  0.00566  0.04628  0.51933  1.0000
  C   C71       1.0  0.98620  0.04458  0.55614  1.0000
  C   C72       1.0  0.84541  0.56856  0.51743  1.0000
  C   C73       1.0  0.99440  0.55926  0.50462  1.0000
  C   C74       1.0  0.97766  0.56888  0.46816  1.0000
  C   C75       1.0  0.78042  0.01234  0.03115  1.0000
  C   C76       1.0  0.62861  0.02284  0.02083  1.0000
  C   C77       1.0  0.63751  0.02426  0.98387  1.0000
  C   C78       1.0  0.37658  0.51604  0.01137  1.0000
  C   C79       1.0  0.52836  0.52270  0.00037  1.0000
  C   C80       1.0  0.51627  0.52430  0.96354  1.0000
  H   H1        1.0  0.40512  0.04154  0.78958  1.0000
  H   H2        1.0  0.74931  0.03108  0.25036  1.0000
  H   H3        1.0  0.72727  0.54834  0.77311  1.0000
  H   H4        1.0  0.38568  0.50408  0.23573  1.0000
  H   H5        1.0  0.61170  0.29440  0.61655  1.0000
  H   H6        1.0  0.64408  0.30668  0.39520  1.0000
  H   H7        1.0  0.63423  0.75690  0.41256  1.0000
  H   H8        1.0  0.40526  0.79462  0.63097  1.0000
  H   H9        1.0  0.00293  0.24818  0.12554  1.0000
  H   H10       1.0  0.22193  0.30512  0.90485  1.0000
  H   H11       1.0  0.22585  0.75448  0.89974  1.0000
  H   H12       1.0  0.18601  0.74872  0.12951  1.0000
  H   H13       1.0  0.11169  0.05420  0.50426  1.0000
  H   H14       1.0  0.09866  0.54632  0.51951  1.0000
  H   H15       1.0  0.52643  0.02674  0.03762  1.0000
  H   H16       1.0  0.63232  0.52404  0.01667  1.0000
  In  In1       1.0  0.30378  0.06056  0.63285  1.0000
  In  In2       1.0  0.71047  0.03100  0.40590  1.0000
  In  In3       1.0  0.70837  0.56334  0.61846  1.0000
  In  In4       1.0  0.29121  0.53610  0.39238  1.0000
  In  In5       1.0  0.94890  0.99004  0.12852  1.0000
  In  In6       1.0  0.28150  0.02874  0.91716  1.0000
  In  In7       1.0  0.22449  0.48896  0.10907  1.0000
  In  In8       1.0  0.86181  0.52876  0.89465  1.0000
  N   N1        1.0  0.06849  0.02082  0.74949  1.0000
  N   N2        1.0  0.02882  0.01576  0.78363  1.0000
  N   N3        1.0  0.05685  0.01346  0.30173  1.0000
  N   N4        1.0  0.11507  0.00034  0.26954  1.0000
  N   N5        1.0  0.04214  0.52674  0.72475  1.0000
  N   N6        1.0  0.09774  0.52110  0.75778  1.0000
  N   N7        1.0  0.05754  0.47798  0.27884  1.0000
  N   N8        1.0  0.01443  0.46788  0.24527  1.0000
  N   N9        1.0  0.33797  0.38302  0.65957  1.0000
  N   N10       1.0  0.28971  0.31488  0.66245  1.0000
  N   N11       1.0  0.26797  0.27924  0.38994  1.0000
  N   N12       1.0  0.32054  0.21198  0.39182  1.0000
  N   N13       1.0  0.40568  0.76720  0.34234  1.0000
  N   N14       1.0  0.45339  0.83518  0.34531  1.0000
  N   N15       1.0  0.77760  0.81752  0.64534  1.0000
  N   N16       1.0  0.72696  0.88562  0.64564  1.0000
  N   N17       1.0  0.38346  0.24246  0.12762  1.0000
  N   N18       1.0  0.34748  0.17292  0.13203  1.0000
  N   N19       1.0  0.89786  0.21058  0.90498  1.0000
  N   N20       1.0  0.84654  0.27676  0.89806  1.0000
  N   N21       1.0  0.90428  0.84198  0.91971  1.0000
  N   N22       1.0  0.85151  0.77608  0.91274  1.0000
  N   N23       1.0  0.84271  0.67176  0.13402  1.0000
  N   N24       1.0  0.80797  0.74110  0.13939  1.0000
  N   N25       1.0  0.83588  0.03330  0.56423  1.0000
  N   N26       1.0  0.75709  0.02770  0.53395  1.0000
  N   N27       1.0  0.82832  0.58292  0.46009  1.0000
  N   N28       1.0  0.74753  0.58298  0.49023  1.0000
  N   N29       1.0  0.78536  0.01548  0.97314  1.0000
  N   N30       1.0  0.87277  0.00822  0.00208  1.0000
  N   N31       1.0  0.36667  0.51932  0.95348  1.0000
  N   N32       1.0  0.28110  0.51408  0.98279  1.0000
  O   O1        1.0  0.44381  0.14958  0.62019  1.0000
  O   O2        1.0  0.26021  0.15728  0.65894  1.0000
  O   O3        1.0  0.25361  0.06024  0.57804  1.0000
  O   O4        1.0  0.07558  0.04962  0.61761  1.0000
  O   O5        1.0  0.22314  0.04390  0.68385  1.0000
  O   O6        1.0  0.45622  0.05188  0.71322  1.0000
  O   O7        1.0  0.52679  0.01654  0.63616  1.0000
  O   O8        1.0  0.32542  0.94874  0.63689  1.0000
  O   O9        1.0  0.50537  0.08662  0.40790  1.0000
  O   O10       1.0  0.71621  0.14100  0.39206  1.0000
  O   O11       1.0  0.66413  0.02122  0.45967  1.0000
  O   O12       1.0  0.89584  0.04264  0.44120  1.0000
  O   O13       1.0  0.85197  0.03348  0.36149  1.0000
  O   O14       1.0  0.65095  0.05092  0.32209  1.0000
  O   O15       1.0  0.54138  0.97008  0.38085  1.0000
  O   O16       1.0  0.74271  0.91852  0.40292  1.0000
  O   O17       1.0  0.50198  0.51530  0.63468  1.0000
  O   O18       1.0  0.70373  0.45098  0.62286  1.0000
  O   O19       1.0  0.65346  0.57374  0.56498  1.0000
  O   O20       1.0  0.88748  0.55300  0.58179  1.0000
  O   O21       1.0  0.84178  0.54634  0.66329  1.0000
  O   O22       1.0  0.63730  0.56250  0.70169  1.0000
  O   O23       1.0  0.55845  0.65078  0.62473  1.0000
  O   O24       1.0  0.80276  0.65986  0.63623  1.0000
  O   O25       1.0  0.46643  0.45612  0.39489  1.0000
  O   O26       1.0  0.22527  0.43048  0.38769  1.0000
  O   O27       1.0  0.24265  0.54558  0.44691  1.0000
  O   O28       1.0  0.06828  0.56248  0.40695  1.0000
  O   O29       1.0  0.21193  0.51872  0.34156  1.0000
  O   O30       1.0  0.44669  0.51150  0.31275  1.0000
  O   O31       1.0  0.47611  0.60862  0.40022  1.0000
  O   O32       1.0  0.29673  0.62720  0.36121  1.0000
  O   O33       1.0  0.16574  0.03568  0.12750  1.0000
  O   O34       1.0  0.95484  0.09824  0.13836  1.0000
  O   O35       1.0  0.98058  0.98486  0.07439  1.0000
  O   O36       1.0  0.75783  0.01424  0.09697  1.0000
  O   O37       1.0  0.91130  0.00312  0.18304  1.0000
  O   O38       1.0  0.16263  0.97204  0.19616  1.0000
  O   O39       1.0  0.07277  0.89552  0.13026  1.0000
  O   O40       1.0  0.82507  0.89980  0.14237  1.0000
  O   O41       1.0  0.08938  0.09012  0.92898  1.0000
  O   O42       1.0  0.28408  0.13734  0.90149  1.0000
  O   O43       1.0  0.36303  0.03240  0.96918  1.0000
  O   O44       1.0  0.51921  0.02616  0.92456  1.0000
  O   O45       1.0  0.28392  0.02746  0.86192  1.0000
  O   O46       1.0  0.01926  0.01692  0.85910  1.0000
  O   O47       1.0  0.10153  0.96540  0.93489  1.0000
  O   O48       1.0  0.27923  0.92052  0.90095  1.0000
  O   O49       1.0  0.11216  0.39156  0.10906  1.0000
  O   O50       1.0  0.35946  0.40194  0.12190  1.0000
  O   O51       1.0  0.18058  0.48842  0.05558  1.0000
  O   O52       1.0  0.40886  0.51596  0.07671  1.0000
  O   O53       1.0  0.24765  0.49004  0.16424  1.0000
  O   O54       1.0  0.99669  0.45060  0.17128  1.0000
  O   O55       1.0  0.01300  0.53922  0.11186  1.0000
  O   O56       1.0  0.23182  0.59464  0.12440  1.0000
  O   O57       1.0  0.03066  0.45196  0.90706  1.0000
  O   O58       1.0  0.82100  0.42590  0.87757  1.0000
  O   O59       1.0  0.79027  0.52674  0.94740  1.0000
  O   O60       1.0  0.62667  0.52816  0.90373  1.0000
  O   O61       1.0  0.86729  0.53222  0.83987  1.0000
  O   O62       1.0  0.13050  0.51770  0.83482  1.0000
  O   O63       1.0  0.03495  0.60264  0.90799  1.0000
  O   O64       1.0  0.82144  0.63388  0.88135  1.0000
