data_image0
_chemical_formula_structural       C128H32Mn24N64O80
_chemical_formula_sum              "C128 H32 Mn24 N64 O80"
_cell_length_a       14.7391
_cell_length_b       21.313
_cell_length_c       39.3367
_cell_angle_alpha    105.659
_cell_angle_beta     90.0919
_cell_angle_gamma    91.402

_space_group_name_H-M_alt    "P 1"
_space_group_IT_number       1

loop_
  _space_group_symop_operation_xyz
  'x, y, z'

loop_
  _atom_site_type_symbol
  _atom_site_label
  _atom_site_symmetry_multiplicity
  _atom_site_fract_x
  _atom_site_fract_y
  _atom_site_fract_z
  _atom_site_occupancy
  C   C1        1.0  0.14082  0.63287  0.64025  1.0000
  C   C2        1.0  0.26122  0.61645  0.55083  1.0000
  C   C3        1.0  0.39912  0.77605  0.57643  1.0000
  C   C4        1.0  0.30078  0.85776  0.66612  1.0000
  C   C5        1.0  0.43354  0.77257  0.38161  1.0000
  C   C6        1.0  0.40510  0.71831  0.28517  1.0000
  C   C7        1.0  0.53324  0.94695  0.29325  1.0000
  C   C8        1.0  0.59618  0.94613  0.38519  1.0000
  C   C9        1.0  0.57294  0.32709  0.39511  1.0000
  C   C10       1.0  0.59148  0.22475  0.30189  1.0000
  C   C11       1.0  0.62200  0.47502  0.29946  1.0000
  C   C12       1.0  0.60606  0.48148  0.39614  1.0000
  C   C13       1.0  0.98750  0.36664  0.63188  1.0000
  C   C14       1.0  0.85802  0.28465  0.55129  1.0000
  C   C15       1.0  0.73278  0.14917  0.57761  1.0000
  C   C16       1.0  0.84826  0.16358  0.66500  1.0000
  C   C17       1.0  0.75566  0.79690  0.05106  1.0000
  C   C18       1.0  0.66208  0.87285  0.13873  1.0000
  C   C19       1.0  0.75316  0.64744  0.15674  1.0000
  C   C20       1.0  0.87142  0.63686  0.07116  1.0000
  C   C21       1.0  0.96462  0.76493  0.87117  1.0000
  C   C22       1.0  0.90232  0.73366  0.77528  1.0000
  C   C23       1.0  0.00036  0.94135  0.78201  1.0000
  C   C24       1.0  0.09212  0.96580  0.87318  1.0000
  C   C25       1.0  0.09178  0.25564  0.88768  1.0000
  C   C26       1.0  0.12320  0.18219  0.79039  1.0000
  C   C27       1.0  0.07924  0.43003  0.80335  1.0000
  C   C28       1.0  0.10012  0.43003  0.89737  1.0000
  C   C29       1.0  0.44030  0.36933  0.15351  1.0000
  C   C30       1.0  0.33368  0.31193  0.06647  1.0000
  C   C31       1.0  0.27258  0.13494  0.06252  1.0000
  C   C32       1.0  0.43576  0.11349  0.13061  1.0000
  C   C33       1.0  0.45740  0.56687  0.48967  1.0000
  C   C34       1.0  0.41540  0.52268  0.46060  1.0000
  C   C35       1.0  0.27614  0.53412  0.49152  1.0000
  C   C36       1.0  0.31716  0.57932  0.52074  1.0000
  C   C37       1.0  0.59612  0.55652  0.45818  1.0000
  C   C38       1.0  0.55430  0.51237  0.42877  1.0000
  C   C39       1.0  0.62102  0.05567  0.49273  1.0000
  C   C40       1.0  0.69672  0.03855  0.47105  1.0000
  C   C41       1.0  0.79398  0.08985  0.51867  1.0000
  C   C42       1.0  0.71872  0.10796  0.54086  1.0000
  C   C43       1.0  0.52484  0.00256  0.44430  1.0000
  C   C44       1.0  0.60110  0.98573  0.42253  1.0000
  C   C45       1.0  0.94402  0.51572  0.97000  1.0000
  C   C46       1.0  0.00420  0.53016  0.99886  1.0000
  C   C47       1.0  0.12012  0.47467  0.96237  1.0000
  C   C48       1.0  0.06144  0.46035  0.93287  1.0000
  C   C49       1.0  0.83074  0.57650  0.00714  1.0000
  C   C50       1.0  0.89190  0.59177  0.03597  1.0000
  C   C51       1.0  0.20282  0.06598  0.95440  1.0000
  C   C52       1.0  0.14094  0.06036  0.98044  1.0000
  C   C53       1.0  0.03742  0.00289  0.93603  1.0000
  C   C54       1.0  0.10122  0.00592  0.90996  1.0000
  C   C55       1.0  0.30930  0.11883  0.99845  1.0000
  C   C56       1.0  0.24870  0.11157  0.02475  1.0000
  C   C57       1.0  0.08594  0.54288  0.74914  1.0000
  C   C58       1.0  0.02192  0.49631  0.71273  1.0000
  C   C59       1.0  0.98720  0.42700  0.74898  1.0000
  C   C60       1.0  0.04736  0.46137  0.77679  1.0000
  C   C61       1.0  0.16612  0.63558  0.71166  1.0000
  C   C62       1.0  0.11518  0.60349  0.66867  1.0000
  C   C63       1.0  0.52712  0.06414  0.23844  1.0000
  C   C64       1.0  0.44978  0.01571  0.20645  1.0000
  C   C65       1.0  0.42610  0.95269  0.24561  1.0000
  C   C66       1.0  0.49856  0.98366  0.26912  1.0000
  C   C67       1.0  0.58386  0.13689  0.17203  1.0000
  C   C68       1.0  0.49652  0.08036  0.14956  1.0000
  C   C69       1.0  0.65322  0.52373  0.21675  1.0000
  C   C70       1.0  0.64804  0.59180  0.22960  1.0000
  C   C71       1.0  0.60022  0.57971  0.28485  1.0000
  C   C72       1.0  0.60930  0.51166  0.27284  1.0000
  C   C73       1.0  0.70954  0.53668  0.16260  1.0000
  C   C74       1.0  0.70612  0.60491  0.17561  1.0000
  C   C75       1.0  0.87640  0.04303  0.71659  1.0000
  C   C76       1.0  0.96774  0.05383  0.72669  1.0000
  C   C77       1.0  0.98248  0.13295  0.69509  1.0000
  C   C78       1.0  0.89038  0.12358  0.68542  1.0000
  C   C79       1.0  0.86364  0.96374  0.74862  1.0000
  C   C80       1.0  0.95502  0.97586  0.75934  1.0000
  C   C81       1.0  0.21636  0.02095  0.74607  1.0000
  C   C82       1.0  0.25056  0.03007  0.71455  1.0000
  C   C83       1.0  0.21776  0.14277  0.73487  1.0000
  C   C84       1.0  0.17834  0.13258  0.76566  1.0000
  C   C85       1.0  0.23626  0.90744  0.72480  1.0000
  C   C86       1.0  0.26986  0.91560  0.69300  1.0000
  C   C87       1.0  0.39988  0.54187  0.23615  1.0000
  C   C88       1.0  0.43370  0.54403  0.20327  1.0000
  C   C89       1.0  0.44876  0.65905  0.22339  1.0000
  C   C90       1.0  0.41526  0.65750  0.25656  1.0000
  C   C91       1.0  0.39124  0.42600  0.21626  1.0000
  C   C92       1.0  0.42580  0.42810  0.18326  1.0000
  C   C93       1.0  0.59260  0.04094  0.18818  1.0000
  C   C94       1.0  0.67836  0.05463  0.22195  1.0000
  C   C95       1.0  0.73530  0.95372  0.19070  1.0000
  C   C96       1.0  0.66454  0.93906  0.16442  1.0000
  C   C97       1.0  0.48704  0.17130  0.24554  1.0000
  C   C98       1.0  0.58554  0.16815  0.27107  1.0000
  C   C99       1.0  0.01464  0.59633  0.71247  1.0000
  C   C100      1.0  0.91502  0.55552  0.69182  1.0000
  C   C101      1.0  0.83610  0.64452  0.72572  1.0000
  C   C102      1.0  0.91494  0.67674  0.74456  1.0000
  C   C103      1.0  0.12246  0.45492  0.66780  1.0000
  C   C104      1.0  0.00700  0.43330  0.65318  1.0000
  C   C105      1.0  0.39244  0.74176  0.46642  1.0000
  C   C106      1.0  0.47426  0.76243  0.48479  1.0000
  C   C107      1.0  0.54078  0.77433  0.43197  1.0000
  C   C108      1.0  0.45690  0.75692  0.41440  1.0000
  C   C109      1.0  0.31852  0.74319  0.51919  1.0000
  C   C110      1.0  0.39972  0.76428  0.53810  1.0000
  C   C111      1.0  0.66088  0.30966  0.47964  1.0000
  C   C112      1.0  0.75142  0.33162  0.47796  1.0000
  C   C113      1.0  0.71656  0.36280  0.42704  1.0000
  C   C114      1.0  0.62756  0.33680  0.42708  1.0000
  C   C115      1.0  0.69824  0.27638  0.53008  1.0000
  C   C116      1.0  0.78956  0.29529  0.52709  1.0000
  C   C117      1.0  0.91088  0.81315  0.96467  1.0000
  C   C118      1.0  0.89324  0.75220  0.97090  1.0000
  C   C119      1.0  0.94946  0.69962  0.91446  1.0000
  C   C120      1.0  0.96260  0.76033  0.90745  1.0000
  C   C121      1.0  0.83704  0.86496  0.01778  1.0000
  C   C122      1.0  0.81666  0.80390  0.02326  1.0000
  C   C123      1.0  0.15240  0.28224  0.98214  1.0000
  C   C124      1.0  0.23302  0.31962  0.98378  1.0000
  C   C125      1.0  0.21770  0.31635  0.92425  1.0000
  C   C126      1.0  0.13778  0.27767  0.92187  1.0000
  C   C127      1.0  0.17826  0.27811  0.04081  1.0000
  C   C128      1.0  0.26150  0.31232  0.04128  1.0000
  H   H1        1.0  0.20466  0.52127  0.49161  1.0000
  H   H2        1.0  0.66720  0.57018  0.45768  1.0000
  H   H3        1.0  0.86258  0.10337  0.52819  1.0000
  H   H4        1.0  0.45704  0.98820  0.43410  1.0000
  H   H5        1.0  0.19002  0.45983  0.95981  1.0000
  H   H6        1.0  0.76276  0.59521  0.00997  1.0000
  H   H7        1.0  0.97330  0.97658  0.92912  1.0000
  H   H8        1.0  0.37548  0.14205  0.00519  1.0000
  H   H9        1.0  0.95296  0.38281  0.75127  1.0000
  H   H10       1.0  0.21208  0.67731  0.71553  1.0000
  H   H11       1.0  0.38962  0.91114  0.25026  1.0000
  H   H12       1.0  0.61310  0.17350  0.16060  1.0000
  H   H13       1.0  0.58252  0.60256  0.31202  1.0000
  H   H14       1.0  0.73602  0.51468  0.13656  1.0000
  H   H15       1.0  0.02524  0.16834  0.68706  1.0000
  H   H16       1.0  0.82234  0.92807  0.75703  1.0000
  H   H17       1.0  0.21678  0.19022  0.72982  1.0000
  H   H18       1.0  0.23070  0.85961  0.72937  1.0000
  H   H19       1.0  0.46826  0.70475  0.21807  1.0000
  H   H20       1.0  0.37418  0.37994  0.22162  1.0000
  H   H21       1.0  0.78730  0.91823  0.18957  1.0000
  H   H22       1.0  0.43680  0.20812  0.25470  1.0000
  H   H23       1.0  0.77060  0.66630  0.73224  1.0000
  H   H24       1.0  0.17682  0.42110  0.65956  1.0000
  H   H25       1.0  0.59818  0.78994  0.41888  1.0000
  H   H26       1.0  0.25622  0.73589  0.53227  1.0000
  H   H27       1.0  0.74036  0.38246  0.40596  1.0000
  H   H28       1.0  0.67686  0.25484  0.55078  1.0000
  H   H29       1.0  0.96070  0.65483  0.89419  1.0000
  H   H30       1.0  0.81344  0.90921  0.03589  1.0000
  H   H31       1.0  0.24482  0.33050  0.90180  1.0000
  H   H32       1.0  0.15822  0.25949  0.06277  1.0000
  Mn  Mn1       1.0  0.47278  0.78636  0.64536  1.0000
  Mn  Mn2       1.0  0.07820  0.66688  0.57530  1.0000
  Mn  Mn3       1.0  0.26960  0.72748  0.61876  1.0000
  Mn  Mn4       1.0  0.69936  0.89775  0.31957  1.0000
  Mn  Mn5       1.0  0.27878  0.79529  0.33855  1.0000
  Mn  Mn6       1.0  0.49116  0.84382  0.32912  1.0000
  Mn  Mn7       1.0  0.76742  0.47118  0.35236  1.0000
  Mn  Mn8       1.0  0.42964  0.27472  0.34624  1.0000
  Mn  Mn9       1.0  0.59624  0.36632  0.33162  1.0000
  Mn  Mn10      1.0  0.67076  0.21505  0.64805  1.0000
  Mn  Mn11      1.0  0.04694  0.26207  0.56851  1.0000
  Mn  Mn12      1.0  0.86932  0.24682  0.61798  1.0000
  Mn  Mn13      1.0  0.93840  0.69587  0.14343  1.0000
  Mn  Mn14      1.0  0.56870  0.78496  0.07500  1.0000
  Mn  Mn15      1.0  0.74878  0.74210  0.11358  1.0000
  Mn  Mn16      1.0  0.18150  0.91420  0.80598  1.0000
  Mn  Mn17      1.0  0.79446  0.78495  0.83753  1.0000
  Mn  Mn18      1.0  0.99086  0.85095  0.82573  1.0000
  Mn  Mn19      1.0  0.24636  0.43670  0.84780  1.0000
  Mn  Mn20      1.0  0.95556  0.19749  0.83611  1.0000
  Mn  Mn21      1.0  0.09394  0.31579  0.83083  1.0000
  Mn  Mn22      1.0  0.23686  0.13394  0.13460  1.0000
  Mn  Mn23      1.0  0.52860  0.32582  0.08268  1.0000
  Mn  Mn24      1.0  0.38610  0.23441  0.11461  1.0000
  N   N1        1.0  0.32596  0.50706  0.46232  1.0000
  N   N2        1.0  0.40758  0.59424  0.51896  1.0000
  N   N3        1.0  0.54682  0.58276  0.48774  1.0000
  N   N4        1.0  0.46444  0.49660  0.43098  1.0000
  N   N5        1.0  0.78120  0.05583  0.48443  1.0000
  N   N6        1.0  0.63342  0.09040  0.52718  1.0000
  N   N7        1.0  0.53662  0.03731  0.47883  1.0000
  N   N8        1.0  0.68492  0.00446  0.43684  1.0000
  N   N9        1.0  0.09034  0.50898  0.99446  1.0000
  N   N10       1.0  0.97372  0.48099  0.93745  1.0000
  N   N11       1.0  0.85830  0.53910  0.97490  1.0000
  N   N12       1.0  0.97696  0.56751  0.03069  1.0000
  N   N13       1.0  0.05912  0.02975  0.97071  1.0000
  N   N14       1.0  0.18184  0.03830  0.92004  1.0000
  N   N15       1.0  0.28516  0.09544  0.96390  1.0000
  N   N16       1.0  0.16528  0.08310  0.01498  1.0000
  N   N17       1.0  0.97570  0.44354  0.71806  1.0000
  N   N18       1.0  0.09128  0.51855  0.77689  1.0000
  N   N19       1.0  0.14902  0.60458  0.74520  1.0000
  N   N20       1.0  0.04458  0.53857  0.66293  1.0000
  N   N21       1.0  0.40576  0.96673  0.21489  1.0000
  N   N22       1.0  0.54444  0.03913  0.26641  1.0000
  N   N23       1.0  0.60784  0.13877  0.21329  1.0000
  N   N24       1.0  0.44286  0.02805  0.16719  1.0000
  N   N25       1.0  0.62070  0.61803  0.26321  1.0000
  N   N26       1.0  0.63500  0.48525  0.23873  1.0000
  N   N27       1.0  0.68320  0.49779  0.18339  1.0000
  N   N28       1.0  0.67476  0.63072  0.20890  1.0000
  N   N29       1.0  0.01868  0.09790  0.71552  1.0000
  N   N30       1.0  0.83942  0.07836  0.69628  1.0000
  N   N31       1.0  0.82624  0.99800  0.72766  1.0000
  N   N32       1.0  0.00424  0.02051  0.74783  1.0000
  N   N33       1.0  0.25206  0.09120  0.70992  1.0000
  N   N34       1.0  0.18134  0.07191  0.77061  1.0000
  N   N35       1.0  0.21152  0.96023  0.75055  1.0000
  N   N36       1.0  0.27812  0.97719  0.68871  1.0000
  N   N37       1.0  0.45664  0.60240  0.19750  1.0000
  N   N38       1.0  0.39046  0.59866  0.26196  1.0000
  N   N39       1.0  0.37918  0.48292  0.24190  1.0000
  N   N40       1.0  0.44562  0.48758  0.17788  1.0000
  N   N41       1.0  0.74060  0.00858  0.21834  1.0000
  N   N42       1.0  0.59702  0.98219  0.16295  1.0000
  N   N43       1.0  0.47588  0.11808  0.20690  1.0000
  N   N44       1.0  0.66724  0.11472  0.25844  1.0000
  N   N45       1.0  0.83668  0.58590  0.70086  1.0000
  N   N46       1.0  0.00104  0.65365  0.73757  1.0000
  N   N47       1.0  0.14204  0.52817  0.69563  1.0000
  N   N48       1.0  0.92082  0.48177  0.66565  1.0000
  N   N49       1.0  0.54740  0.77693  0.46695  1.0000
  N   N50       1.0  0.38634  0.73936  0.43208  1.0000
  N   N51       1.0  0.31698  0.73204  0.48382  1.0000
  N   N52       1.0  0.47668  0.77254  0.52044  1.0000
  N   N53       1.0  0.77668  0.35877  0.45215  1.0000
  N   N54       1.0  0.60088  0.31183  0.45383  1.0000
  N   N55       1.0  0.63616  0.28306  0.50592  1.0000
  N   N56       1.0  0.81376  0.32309  0.50131  1.0000
  N   N57       1.0  0.91474  0.69691  0.94603  1.0000
  N   N58       1.0  0.94480  0.81569  0.93309  1.0000
  N   N59       1.0  0.88350  0.86820  0.98844  1.0000
  N   N60       1.0  0.84642  0.74902  0.99998  1.0000
  N   N61       1.0  0.26338  0.33624  0.95508  1.0000
  N   N62       1.0  0.10576  0.26209  0.95109  1.0000
  N   N63       1.0  0.12582  0.26335  0.01101  1.0000
  N   N64       1.0  0.28500  0.33334  0.01300  1.0000
  O   O1        1.0  0.38586  0.85846  0.65532  1.0000
  O   O2        1.0  0.24650  0.80507  0.65729  1.0000
  O   O3        1.0  0.38188  0.72057  0.64029  1.0000
  O   O4        1.0  0.15700  0.73613  0.59815  1.0000
  O   O5        1.0  0.47340  0.77403  0.59437  1.0000
  O   O6        1.0  0.32018  0.78354  0.59184  1.0000
  O   O7        1.0  0.17298  0.61806  0.54566  1.0000
  O   O8        1.0  0.30326  0.65128  0.57976  1.0000
  O   O9        1.0  0.08832  0.62090  0.61194  1.0000
  O   O10       1.0  0.21316  0.67264  0.64602  1.0000
  O   O11       1.0  0.67468  0.93693  0.36879  1.0000
  O   O12       1.0  0.51752  0.92063  0.37037  1.0000
  O   O13       1.0  0.61470  0.83028  0.31944  1.0000
  O   O14       1.0  0.36718  0.85850  0.33680  1.0000
  O   O15       1.0  0.61740  0.95765  0.30507  1.0000
  O   O16       1.0  0.48272  0.89770  0.29700  1.0000
  O   O17       1.0  0.33388  0.72127  0.30551  1.0000
  O   O18       1.0  0.46616  0.76643  0.28893  1.0000
  O   O19       1.0  0.34550  0.77652  0.37644  1.0000
  O   O20       1.0  0.49794  0.78968  0.36224  1.0000
  O   O21       1.0  0.69424  0.49106  0.39520  1.0000
  O   O22       1.0  0.56116  0.44511  0.36861  1.0000
  O   O23       1.0  0.72114  0.38603  0.33499  1.0000
  O   O24       1.0  0.47162  0.34415  0.32843  1.0000
  O   O25       1.0  0.67690  0.50511  0.32591  1.0000
  O   O26       1.0  0.58630  0.41518  0.29548  1.0000
  O   O27       1.0  0.53522  0.22021  0.32751  1.0000
  O   O28       1.0  0.61678  0.28226  0.29662  1.0000
  O   O29       1.0  0.48634  0.31140  0.39290  1.0000
  O   O30       1.0  0.61898  0.32195  0.36665  1.0000
  O   O31       1.0  0.76006  0.15483  0.65805  1.0000
  O   O32       1.0  0.90040  0.20613  0.65457  1.0000
  O   O33       1.0  0.76000  0.27448  0.64106  1.0000
  O   O34       1.0  0.97946  0.21847  0.59573  1.0000
  O   O35       1.0  0.66290  0.17103  0.59757  1.0000
  O   O36       1.0  0.81670  0.16366  0.58916  1.0000
  O   O37       1.0  0.94160  0.27150  0.54046  1.0000
  O   O38       1.0  0.82970  0.28733  0.58293  1.0000
  O   O39       1.0  0.03212  0.34749  0.60191  1.0000
  O   O40       1.0  0.92736  0.33014  0.64378  1.0000
  O   O41       1.0  0.94042  0.65254  0.09342  1.0000
  O   O42       1.0  0.78866  0.65999  0.07899  1.0000
  O   O43       1.0  0.86296  0.75977  0.13553  1.0000
  O   O44       1.0  0.63256  0.72573  0.09303  1.0000
  O   O45       1.0  0.84040  0.63732  0.15090  1.0000
  O   O46       1.0  0.70906  0.69407  0.14773  1.0000
  O   O47       1.0  0.61104  0.86442  0.11018  1.0000
  O   O48       1.0  0.70942  0.82526  0.14572  1.0000
  O   O49       1.0  0.66814  0.79114  0.04376  1.0000
  O   O50       1.0  0.79258  0.78843  0.07991  1.0000
  O   O51       1.0  0.16832  0.95647  0.85527  1.0000
  O   O52       1.0  0.01306  0.93712  0.86060  1.0000
  O   O53       1.0  0.11320  0.84370  0.81304  1.0000
  O   O54       1.0  0.86754  0.85813  0.83779  1.0000
  O   O55       1.0  0.07978  0.96391  0.79563  1.0000
  O   O56       1.0  0.96216  0.88905  0.78749  1.0000
  O   O57       1.0  0.82022  0.74560  0.78812  1.0000
  O   O58       1.0  0.97508  0.76443  0.79179  1.0000
  O   O59       1.0  0.89460  0.73773  0.85131  1.0000
  O   O60       1.0  0.01288  0.81304  0.86462  1.0000
  O   O61       1.0  0.18354  0.44854  0.89216  1.0000
  O   O62       1.0  0.05342  0.38520  0.87326  1.0000
  O   O63       1.0  0.21338  0.34873  0.83277  1.0000
  O   O64       1.0  0.97548  0.27961  0.82769  1.0000
  O   O65       1.0  0.14072  0.46387  0.82593  1.0000
  O   O66       1.0  0.05812  0.36800  0.79980  1.0000
  O   O67       1.0  0.06890  0.16100  0.81220  1.0000
  O   O68       1.0  0.12926  0.24440  0.79036  1.0000
  O   O69       1.0  0.01030  0.22871  0.88337  1.0000
  O   O70       1.0  0.13596  0.26477  0.86085  1.0000
  O   O71       1.0  0.35294  0.08851  0.12329  1.0000
  O   O72       1.0  0.45392  0.17585  0.13425  1.0000
  O   O73       1.0  0.28250  0.21898  0.13904  1.0000
  O   O74       1.0  0.49352  0.24753  0.09173  1.0000
  O   O75       1.0  0.21242  0.12506  0.08528  1.0000
  O   O76       1.0  0.35332  0.16293  0.07223  1.0000
  O   O77       1.0  0.41690  0.32258  0.05664  1.0000
  O   O78       1.0  0.31468  0.29123  0.09429  1.0000
  O   O79       1.0  0.47370  0.38141  0.12477  1.0000
  O   O80       1.0  0.41700  0.30969  0.15547  1.0000
