data_image0
_chemical_formula_structural       C162H72O94U12
_chemical_formula_sum              "C162 H72 O94 U12"
_cell_length_a       12.8361
_cell_length_b       21.6386
_cell_length_c       25.1922
_cell_angle_alpha    90
_cell_angle_beta     90
_cell_angle_gamma    94.458

_space_group_name_H-M_alt    "P 1"
_space_group_IT_number       1

loop_
  _space_group_symop_operation_xyz
  'x, y, z'

loop_
  _atom_site_type_symbol
  _atom_site_label
  _atom_site_symmetry_multiplicity
  _atom_site_fract_x
  _atom_site_fract_y
  _atom_site_fract_z
  _atom_site_occupancy
  C   C1        1.0  0.18464  0.78178  0.75690  1.0000
  C   C2        1.0  0.19452  0.57812  0.68352  1.0000
  C   C3        1.0  0.37714  0.64230  0.83583  1.0000
  C   C4        1.0  0.91132  0.71646  0.83475  1.0000
  C   C5        1.0  0.94268  0.52308  0.76707  1.0000
  C   C6        1.0  0.11284  0.57450  0.92336  1.0000
  C   C7        1.0  0.86388  0.69644  0.68892  1.0000
  C   C8        1.0  0.13596  0.42482  0.82789  1.0000
  C   C9        1.0  0.16588  0.74462  0.96228  1.0000
  C   C10       1.0  0.21654  0.82928  0.21540  1.0000
  C   C11       1.0  0.08910  0.71988  0.37730  1.0000
  C   C12       1.0  0.29976  0.61452  0.24488  1.0000
  C   C13       1.0  0.48246  0.88498  0.29027  1.0000
  C   C14       1.0  0.36418  0.78370  0.44389  1.0000
  C   C15       1.0  0.56204  0.69018  0.33401  1.0000
  C   C16       1.0  0.13308  0.92226  0.33452  1.0000
  C   C17       1.0  0.21704  0.57818  0.41952  1.0000
  C   C18       1.0  0.48778  0.70850  0.15348  1.0000
  C   C19       1.0  0.97758  0.38236  0.14794  1.0000
  C   C20       1.0  0.81448  0.33714  0.02767  1.0000
  C   C21       1.0  0.03480  0.23108  0.11997  1.0000
  C   C22       1.0  0.78472  0.38152  0.26238  1.0000
  C   C23       1.0  0.56416  0.25990  0.08423  1.0000
  C   C24       1.0  0.79712  0.13020  0.20499  1.0000
  C   C25       1.0  0.74340  0.47530  0.09500  1.0000
  C   C26       1.0  0.68750  0.12302  0.03433  1.0000
  C   C27       1.0  0.05462  0.21302  0.27003  1.0000
  C   C28       1.0  0.36402  0.21844  0.61441  1.0000
  C   C29       1.0  0.41746  0.06322  0.69569  1.0000
  C   C30       1.0  0.58456  0.04724  0.53480  1.0000
  C   C31       1.0  0.67002  0.30572  0.63627  1.0000
  C   C32       1.0  0.67216  0.11246  0.77107  1.0000
  C   C33       1.0  0.82246  0.16836  0.59854  1.0000
  C   C34       1.0  0.42718  0.21356  0.78981  1.0000
  C   C35       1.0  0.60800  0.94338  0.65389  1.0000
  C   C36       1.0  0.60720  0.27964  0.48532  1.0000
  C   C37       1.0  0.49000  0.66566  0.83625  1.0000
  C   C38       1.0  0.51672  0.72664  0.85313  1.0000
  C   C39       1.0  0.62110  0.74972  0.85770  1.0000
  C   C40       1.0  0.70372  0.71256  0.84636  1.0000
  C   C41       1.0  0.67732  0.65144  0.82843  1.0000
  C   C42       1.0  0.57154  0.62856  0.82273  1.0000
  C   C43       1.0  0.81408  0.73830  0.85837  1.0000
  C   C44       1.0  0.67366  0.68912  0.35041  1.0000
  C   C45       1.0  0.69738  0.67996  0.40409  1.0000
  C   C46       1.0  0.80058  0.68400  0.42185  1.0000
  C   C47       1.0  0.88456  0.69772  0.38673  1.0000
  C   C48       1.0  0.86166  0.70576  0.33259  1.0000
  C   C49       1.0  0.75718  0.70138  0.31458  1.0000
  C   C50       1.0  0.99350  0.70418  0.40870  1.0000
  C   C51       1.0  0.14706  0.23444  0.10322  1.0000
  C   C52       1.0  0.17312  0.23842  0.04911  1.0000
  C   C53       1.0  0.27752  0.24290  0.03261  1.0000
  C   C54       1.0  0.36008  0.24420  0.06961  1.0000
  C   C55       1.0  0.33452  0.24096  0.12388  1.0000
  C   C56       1.0  0.22938  0.23602  0.14046  1.0000
  C   C57       1.0  0.47088  0.24826  0.04999  1.0000
  C   C58       1.0  0.24726  0.21274  0.61448  1.0000
  C   C59       1.0  0.19278  0.16940  0.58073  1.0000
  C   C60       1.0  0.08318  0.16346  0.57937  1.0000
  C   C61       1.0  0.02494  0.20108  0.61133  1.0000
  C   C62       1.0  0.07898  0.24250  0.64683  1.0000
  C   C63       1.0  0.18880  0.24742  0.64917  1.0000
  C   C64       1.0  0.91706  0.21260  0.59484  1.0000
  C   C65       1.0  0.22482  0.84312  0.73654  1.0000
  C   C66       1.0  0.32212  0.87080  0.75325  1.0000
  C   C67       1.0  0.35368  0.93184  0.73881  1.0000
  C   C68       1.0  0.28824  0.96614  0.70762  1.0000
  C   C69       1.0  0.19364  0.93740  0.68879  1.0000
  C   C70       1.0  0.16256  0.87646  0.70276  1.0000
  C   C71       1.0  0.31088  0.03356  0.69988  1.0000
  C   C72       1.0  0.24638  0.56212  0.21496  1.0000
  C   C73       1.0  0.21290  0.50622  0.24045  1.0000
  C   C74       1.0  0.15614  0.45872  0.21261  1.0000
  C   C75       1.0  0.13226  0.46608  0.15863  1.0000
  C   C76       1.0  0.16712  0.52146  0.13306  1.0000
  C   C77       1.0  0.22224  0.56908  0.16093  1.0000
  C   C78       1.0  0.07202  0.41732  0.12743  1.0000
  C   C79       1.0  0.56422  0.93548  0.27888  1.0000
  C   C80       1.0  0.66956  0.92234  0.28069  1.0000
  C   C81       1.0  0.74838  0.96638  0.26519  1.0000
  C   C82       1.0  0.72494  0.02528  0.24745  1.0000
  C   C83       1.0  0.61966  0.03944  0.24691  1.0000
  C   C84       1.0  0.53988  0.99488  0.26263  1.0000
  C   C85       1.0  0.81202  0.06950  0.22862  1.0000
  C   C86       1.0  0.70900  0.37008  0.64578  1.0000
  C   C87       1.0  0.81742  0.38414  0.64769  1.0000
  C   C88       1.0  0.86064  0.42826  0.68357  1.0000
  C   C89       1.0  0.79564  0.45792  0.71865  1.0000
  C   C90       1.0  0.68690  0.44944  0.71201  1.0000
  C   C91       1.0  0.64394  0.40630  0.67532  1.0000
  C   C92       1.0  0.83970  0.48882  0.76702  1.0000
  C   C93       1.0  0.34138  0.23448  0.82152  1.0000
  C   C94       1.0  0.36152  0.28738  0.85321  1.0000
  C   C95       1.0  0.28252  0.32640  0.86317  1.0000
  C   C96       1.0  0.18268  0.31244  0.84187  1.0000
  C   C97       1.0  0.15902  0.25490  0.81710  1.0000
  C   C98       1.0  0.23832  0.21594  0.80689  1.0000
  C   C99       1.0  0.10582  0.35940  0.84090  1.0000
  C   C100      1.0  0.08670  0.15872  0.29912  1.0000
  C   C101      1.0  0.14890  0.11734  0.27335  1.0000
  C   C102      1.0  0.14550  0.05524  0.28912  1.0000
  C   C103      1.0  0.07770  0.03354  0.32994  1.0000
  C   C104      1.0  0.02332  0.07620  0.35885  1.0000
  C   C105      1.0  0.02924  0.13856  0.34414  1.0000
  C   C106      1.0  0.05262  0.96632  0.33765  1.0000
  C   C107      1.0  0.54636  0.67102  0.11707  1.0000
  C   C108      1.0  0.50768  0.61040  0.10448  1.0000
  C   C109      1.0  0.57524  0.56766  0.08598  1.0000
  C   C110      1.0  0.68248  0.58490  0.08026  1.0000
  C   C111      1.0  0.71818  0.64748  0.08663  1.0000
  C   C112      1.0  0.65060  0.69020  0.10498  1.0000
  C   C113      1.0  0.75918  0.53800  0.07211  1.0000
  C   C114      1.0  0.78320  0.73466  0.66954  1.0000
  C   C115      1.0  0.68424  0.72836  0.69312  1.0000
  C   C116      1.0  0.61514  0.77410  0.68628  1.0000
  C   C117      1.0  0.64496  0.82746  0.65662  1.0000
  C   C118      1.0  0.74178  0.83210  0.63045  1.0000
  C   C119      1.0  0.81042  0.78560  0.63661  1.0000
  C   C120      1.0  0.57294  0.87698  0.65329  1.0000
  C   C121      1.0  0.03860  0.52594  0.94499  1.0000
  C   C122      1.0  0.07468  0.47018  0.96331  1.0000
  C   C123      1.0  0.00404  0.41970  0.97501  1.0000
  C   C124      1.0  0.89674  0.42414  0.96818  1.0000
  C   C125      1.0  0.86042  0.47956  0.94950  1.0000
  C   C126      1.0  0.93082  0.53052  0.93873  1.0000
  C   C127      1.0  0.82356  0.36930  0.97620  1.0000
  C   C128      1.0  0.54264  0.98458  0.51957  1.0000
  C   C129      1.0  0.60494  0.93428  0.52505  1.0000
  C   C130      1.0  0.56156  0.87368  0.51855  1.0000
  C   C131      1.0  0.45602  0.86270  0.50529  1.0000
  C   C132      1.0  0.39454  0.91280  0.49768  1.0000
  C   C133      1.0  0.43742  0.97338  0.50494  1.0000
  C   C134      1.0  0.41144  0.79916  0.49558  1.0000
  C   C135      1.0  0.16562  0.77088  0.01584  1.0000
  C   C136      1.0  0.17256  0.83544  0.02227  1.0000
  C   C137      1.0  0.16898  0.86134  0.07282  1.0000
  C   C138      1.0  0.16208  0.82306  0.11771  1.0000
  C   C139      1.0  0.15772  0.75838  0.11140  1.0000
  C   C140      1.0  0.15782  0.73238  0.06061  1.0000
  C   C141      1.0  0.15496  0.85072  0.17089  1.0000
  C   C142      1.0  0.20096  0.56358  0.62640  1.0000
  C   C143      1.0  0.23344  0.61080  0.59057  1.0000
  C   C144      1.0  0.22370  0.60132  0.53607  1.0000
  C   C145      1.0  0.18130  0.54422  0.51580  1.0000
  C   C146      1.0  0.15236  0.49606  0.55164  1.0000
  C   C147      1.0  0.16270  0.50552  0.60647  1.0000
  C   C148      1.0  0.16120  0.53662  0.45787  1.0000
  C   C149      1.0  0.67312  0.10260  0.82892  1.0000
  C   C150      1.0  0.69442  0.15314  0.86311  1.0000
  C   C151      1.0  0.68190  0.14596  0.91768  1.0000
  C   C152      1.0  0.64790  0.08800  0.93940  1.0000
  C   C153      1.0  0.62852  0.03708  0.90536  1.0000
  C   C154      1.0  0.64170  0.04420  0.85057  1.0000
  C   C155      1.0  0.62848  0.08178  0.99716  1.0000
  C   C156      1.0  0.63084  0.32454  0.44275  1.0000
  C   C157      1.0  0.59158  0.31070  0.39194  1.0000
  C   C158      1.0  0.62844  0.34526  0.34846  1.0000
  C   C159      1.0  0.70702  0.39346  0.35487  1.0000
  C   C160      1.0  0.74004  0.41084  0.40631  1.0000
  C   C161      1.0  0.70184  0.37642  0.45026  1.0000
  C   C162      1.0  0.75994  0.42134  0.30751  1.0000
  H   H1        1.0  0.45634  0.75688  0.86327  1.0000
  H   H2        1.0  0.63702  0.79696  0.87132  1.0000
  H   H3        1.0  0.73752  0.62048  0.82041  1.0000
  H   H4        1.0  0.55378  0.58122  0.80980  1.0000
  H   H5        1.0  0.63586  0.67044  0.43303  1.0000
  H   H6        1.0  0.81414  0.67720  0.46378  1.0000
  H   H7        1.0  0.92396  0.71622  0.30429  1.0000
  H   H8        1.0  0.74182  0.70914  0.27297  1.0000
  H   H9        1.0  0.11270  0.23798  0.01909  1.0000
  H   H10       1.0  0.29336  0.24566  0.99043  1.0000
  H   H11       1.0  0.39548  0.24188  0.15361  1.0000
  H   H12       1.0  0.21318  0.23424  0.18252  1.0000
  H   H13       1.0  0.23494  0.14064  0.55443  1.0000
  H   H14       1.0  0.04424  0.13274  0.55042  1.0000
  H   H15       1.0  0.03620  0.27350  0.67076  1.0000
  H   H16       1.0  0.22770  0.28030  0.67639  1.0000
  H   H17       1.0  0.37244  0.84616  0.77887  1.0000
  H   H18       1.0  0.42670  0.95302  0.75420  1.0000
  H   H19       1.0  0.14194  0.96280  0.66451  1.0000
  H   H20       1.0  0.08768  0.85646  0.68872  1.0000
  H   H21       1.0  0.22932  0.49932  0.28208  1.0000
  H   H22       1.0  0.13288  0.41622  0.23339  1.0000
  H   H23       1.0  0.14954  0.52858  0.09156  1.0000
  H   H24       1.0  0.24440  0.61168  0.13994  1.0000
  H   H25       1.0  0.69166  0.87730  0.29316  1.0000
  H   H26       1.0  0.82806  0.95340  0.26599  1.0000
  H   H27       1.0  0.59864  0.08436  0.23360  1.0000
  H   H28       1.0  0.45938  0.00634  0.26061  1.0000
  H   H29       1.0  0.86936  0.35610  0.62636  1.0000
  H   H30       1.0  0.94480  0.43390  0.68773  1.0000
  H   H31       1.0  0.63506  0.47236  0.73813  1.0000
  H   H32       1.0  0.56012  0.39540  0.67534  1.0000
  H   H33       1.0  0.44054  0.30210  0.86531  1.0000
  H   H34       1.0  0.30120  0.36926  0.88446  1.0000
  H   H35       1.0  0.08170  0.24280  0.80123  1.0000
  H   H36       1.0  0.22108  0.17548  0.78217  1.0000
  H   H37       1.0  0.19264  0.13160  0.23810  1.0000
  H   H38       1.0  0.18824  0.02326  0.26621  1.0000
  H   H39       1.0  0.97132  0.06062  0.39081  1.0000
  H   H40       1.0  0.97954  0.16922  0.36437  1.0000
  H   H41       1.0  0.42736  0.59464  0.11271  1.0000
  H   H42       1.0  0.54412  0.52056  0.07863  1.0000
  H   H43       1.0  0.79996  0.66248  0.08139  1.0000
  H   H44       1.0  0.68226  0.73688  0.11393  1.0000
  H   H45       1.0  0.66218  0.68940  0.71876  1.0000
  H   H46       1.0  0.54022  0.76912  0.70627  1.0000
  H   H47       1.0  0.76518  0.87184  0.60600  1.0000
  H   H48       1.0  0.88714  0.79158  0.61861  1.0000
  H   H49       1.0  0.15760  0.46500  0.96687  1.0000
  H   H50       1.0  0.03334  0.37630  0.98718  1.0000
  H   H51       1.0  0.77776  0.48328  0.94303  1.0000
  H   H52       1.0  0.90130  0.57234  0.92300  1.0000
  H   H53       1.0  0.68652  0.94160  0.53591  1.0000
  H   H54       1.0  0.61046  0.83552  0.52347  1.0000
  H   H55       1.0  0.31298  0.90496  0.48677  1.0000
  H   H56       1.0  0.38750  0.01112  0.50050  1.0000
  H   H57       1.0  0.17836  0.86592  0.98812  1.0000
  H   H58       1.0  0.17232  0.91128  0.07690  1.0000
  H   H59       1.0  0.15152  0.72802  0.14560  1.0000
  H   H60       1.0  0.15278  0.68244  0.05636  1.0000
  H   H61       1.0  0.26294  0.65612  0.60467  1.0000
  H   H62       1.0  0.24524  0.64004  0.51017  1.0000
  H   H63       1.0  0.11946  0.45156  0.53736  1.0000
  H   H64       1.0  0.13602  0.46838  0.63315  1.0000
  H   H65       1.0  0.71782  0.19882  0.84767  1.0000
  H   H66       1.0  0.69538  0.18656  0.94255  1.0000
  H   H67       1.0  0.60216  0.99196  0.92104  1.0000
  H   H68       1.0  0.62358  0.00448  0.82516  1.0000
  H   H69       1.0  0.53548  0.27140  0.38546  1.0000
  H   H70       1.0  0.59880  0.33240  0.30944  1.0000
  H   H71       1.0  0.79976  0.44836  0.41218  1.0000
  H   H72       1.0  0.73280  0.38780  0.48933  1.0000
  O   O1        1.0  0.95234  0.68866  0.66457  1.0000
  O   O2        1.0  0.23050  0.44990  0.81659  1.0000
  O   O3        1.0  0.20808  0.77358  0.92115  1.0000
  O   O4        1.0  0.23564  0.75602  0.79468  1.0000
  O   O5        1.0  0.09240  0.75860  0.74159  1.0000
  O   O6        1.0  0.18286  0.63580  0.69654  1.0000
  O   O7        1.0  0.17630  0.53332  0.71853  1.0000
  O   O8        1.0  0.34050  0.60054  0.80075  1.0000
  O   O9        1.0  0.31680  0.66310  0.87327  1.0000
  O   O10       1.0  0.00240  0.74210  0.85310  1.0000
  O   O11       1.0  0.90280  0.68154  0.79082  1.0000
  O   O12       1.0  0.96710  0.56044  0.72687  1.0000
  O   O13       1.0  0.01022  0.51120  0.80581  1.0000
  O   O14       1.0  0.19206  0.55724  0.89555  1.0000
  O   O15       1.0  0.08836  0.63328  0.92221  1.0000
  O   O16       1.0  0.87070  0.68210  0.73958  1.0000
  O   O17       1.0  0.06740  0.46690  0.82526  1.0000
  O   O18       1.0  0.11982  0.69064  0.94798  1.0000
  O   O19       1.0  0.09016  0.62704  0.81258  1.0000
  O   O20       1.0  0.13174  0.87504  0.30119  1.0000
  O   O21       1.0  0.17144  0.61446  0.38616  1.0000
  O   O22       1.0  0.40228  0.68706  0.17847  1.0000
  O   O23       1.0  0.31292  0.81332  0.20476  1.0000
  O   O24       1.0  0.17520  0.83420  0.26381  1.0000
  O   O25       1.0  0.13470  0.77672  0.38458  1.0000
  O   O26       1.0  0.14184  0.67146  0.36305  1.0000
  O   O27       1.0  0.32382  0.60604  0.29558  1.0000
  O   O28       1.0  0.32820  0.66620  0.21756  1.0000
  O   O29       1.0  0.50994  0.82846  0.29103  1.0000
  O   O30       1.0  0.38408  0.89542  0.29595  1.0000
  O   O31       1.0  0.37986  0.82308  0.40492  1.0000
  O   O32       1.0  0.30836  0.73118  0.43746  1.0000
  O   O33       1.0  0.49154  0.69306  0.37115  1.0000
  O   O34       1.0  0.53590  0.69014  0.28381  1.0000
  O   O35       1.0  0.20720  0.91906  0.36981  1.0000
  O   O36       1.0  0.31718  0.59430  0.42208  1.0000
  O   O37       1.0  0.53238  0.75522  0.18013  1.0000
  O   O38       1.0  0.29298  0.74208  0.30436  1.0000
  O   O39       1.0  0.80796  0.43210  0.09092  1.0000
  O   O40       1.0  0.78614  0.14220  0.02785  1.0000
  O   O41       1.0  0.02770  0.20724  0.22001  1.0000
  O   O42       1.0  0.98348  0.35452  0.19456  1.0000
  O   O43       1.0  0.89168  0.37950  0.11700  1.0000
  O   O44       1.0  0.83372  0.36922  0.07274  1.0000
  O   O45       1.0  0.77096  0.28046  0.02834  1.0000
  O   O46       1.0  0.96320  0.23888  0.08440  1.0000
  O   O47       1.0  0.00828  0.21732  0.16971  1.0000
  O   O48       1.0  0.78734  0.32148  0.26973  1.0000
  O   O49       1.0  0.80180  0.40588  0.21515  1.0000
  O   O50       1.0  0.61344  0.31644  0.08159  1.0000
  O   O51       1.0  0.61492  0.20984  0.09694  1.0000
  O   O52       1.0  0.81552  0.13530  0.15297  1.0000
  O   O53       1.0  0.80084  0.17766  0.23827  1.0000
  O   O54       1.0  0.66838  0.45494  0.12617  1.0000
  O   O55       1.0  0.64512  0.15366  0.07309  1.0000
  O   O56       1.0  0.99640  0.25342  0.29074  1.0000
  O   O57       1.0  0.76852  0.26864  0.16167  1.0000
  O   O58       1.0  0.41944  0.16458  0.75802  1.0000
  O   O59       1.0  0.54076  0.98632  0.65150  1.0000
  O   O60       1.0  0.58422  0.22130  0.47734  1.0000
  O   O61       1.0  0.41162  0.20092  0.57086  1.0000
  O   O62       1.0  0.41526  0.24210  0.65665  1.0000
  O   O63       1.0  0.43318  0.11806  0.72111  1.0000
  O   O64       1.0  0.48678  0.03562  0.66470  1.0000
  O   O65       1.0  0.66904  0.05334  0.56325  1.0000
  O   O66       1.0  0.52740  0.09422  0.53082  1.0000
  O   O67       1.0  0.62464  0.28754  0.59102  1.0000
  O   O68       1.0  0.67164  0.27054  0.67781  1.0000
  O   O69       1.0  0.67370  0.16864  0.75281  1.0000
  O   O70       1.0  0.65718  0.06526  0.73933  1.0000
  O   O71       1.0  0.80554  0.13122  0.64066  1.0000
  O   O72       1.0  0.75454  0.17220  0.55866  1.0000
  O   O73       1.0  0.50230  0.25360  0.77370  1.0000
  O   O74       1.0  0.70518  0.96878  0.65620  1.0000
  O   O75       1.0  0.61758  0.28862  0.53627  1.0000
  O   O76       1.0  0.56328  0.14254  0.63753  1.0000
  O   O77       1.0  0.82554  0.78066  0.89050  1.0000
  O   O78       1.0  0.00598  0.69636  0.45626  1.0000
  O   O79       1.0  0.48680  0.24242  0.00249  1.0000
  O   O80       1.0  0.90620  0.26224  0.57328  1.0000
  O   O81       1.0  0.23806  0.06668  0.69786  1.0000
  O   O82       1.0  0.09802  0.40822  0.08172  1.0000
  O   O83       1.0  0.90182  0.05472  0.23159  1.0000
  O   O84       1.0  0.79050  0.48462  0.80854  1.0000
  O   O85       1.0  0.01370  0.34352  0.84876  1.0000
  O   O86       1.0  0.96280  0.94660  0.34706  1.0000
  O   O87       1.0  0.84134  0.55278  0.04940  1.0000
  O   O88       1.0  0.47912  0.86258  0.65081  1.0000
  O   O89       1.0  0.76874  0.35008  0.93919  1.0000
  O   O90       1.0  0.41666  0.75934  0.52964  1.0000
  O   O91       1.0  0.09658  0.89192  0.17815  1.0000
  O   O92       1.0  0.09484  0.49758  0.44183  1.0000
  O   O93       1.0  0.56112  0.04386  0.01403  1.0000
  O   O94       1.0  0.78438  0.47698  0.30595  1.0000
  U   U1        1.0  0.15968  0.70104  0.86109  1.0000
  U   U2        1.0  0.03634  0.65806  0.73690  1.0000
  U   U3        1.0  0.18202  0.54732  0.80737  1.0000
  U   U4        1.0  0.42062  0.75172  0.24832  1.0000
  U   U5        1.0  0.26576  0.83104  0.33954  1.0000
  U   U6        1.0  0.31836  0.67296  0.36445  1.0000
  U   U7        1.0  0.89154  0.26704  0.22025  1.0000
  U   U8        1.0  0.72244  0.35998  0.14450  1.0000
  U   U9        1.0  0.79232  0.21204  0.09302  1.0000
  U   U10       1.0  0.58164  0.18810  0.56192  1.0000
  U   U11       1.0  0.54650  0.20148  0.70266  1.0000
  U   U12       1.0  0.65898  0.06696  0.65060  1.0000
