data_image0
_chemical_formula_structural       C189H81N27O117Zn36
_chemical_formula_sum              "C189 H81 N27 O117 Zn36"
_cell_length_a       12.4567
_cell_length_b       41.2476
_cell_length_c       41.4898
_cell_angle_alpha    60.5762
_cell_angle_beta     88.4189
_cell_angle_gamma    89.208

_space_group_name_H-M_alt    "P 1"
_space_group_IT_number       1

loop_
  _space_group_symop_operation_xyz
  'x, y, z'

loop_
  _atom_site_type_symbol
  _atom_site_label
  _atom_site_symmetry_multiplicity
  _atom_site_fract_x
  _atom_site_fract_y
  _atom_site_fract_z
  _atom_site_occupancy
  C   C1        1.0  0.66208  0.18383  0.99413  1.0000
  C   C2        1.0  0.92735  0.08846  0.07141  1.0000
  C   C3        1.0  0.08899  0.21925  0.04375  1.0000
  C   C4        1.0  0.95140  0.15293  0.93662  1.0000
  C   C5        1.0  0.90000  0.27340  0.95258  1.0000
  C   C6        1.0  0.20669  0.18617  0.98308  1.0000
  C   C7        1.0  0.31804  0.02129  0.82488  1.0000
  C   C8        1.0  0.03287  0.93683  0.91181  1.0000
  C   C9        1.0  0.88684  0.97891  0.77688  1.0000
  C   C10       1.0  0.02871  0.07450  0.85606  1.0000
  C   C11       1.0  0.09014  0.06271  0.73312  1.0000
  C   C12       1.0  0.77484  0.03339  0.81922  1.0000
  C   C13       1.0  0.68999  0.84546  0.15705  1.0000
  C   C14       1.0  0.98276  0.85869  0.06636  1.0000
  C   C15       1.0  0.13346  0.76013  0.19976  1.0000
  C   C16       1.0  0.95036  0.93137  0.13692  1.0000
  C   C17       1.0  0.92745  0.79357  0.24898  1.0000
  C   C18       1.0  0.23372  0.85552  0.16157  1.0000
  C   C19       1.0  0.03063  0.85792  0.64878  1.0000
  C   C20       1.0  0.76910  0.83280  0.57856  1.0000
  C   C21       1.0  0.60218  0.94070  0.60268  1.0000
  C   C22       1.0  0.75598  0.76980  0.71957  1.0000
  C   C23       1.0  0.77851  0.90761  0.69317  1.0000
  C   C24       1.0  0.48527  0.84862  0.66053  1.0000
  C   C25       1.0  0.04037  0.66239  0.50048  1.0000
  C   C26       1.0  0.74589  0.61203  0.58912  1.0000
  C   C27       1.0  0.62792  0.62232  0.45908  1.0000
  C   C28       1.0  0.77905  0.74856  0.50427  1.0000
  C   C29       1.0  0.79363  0.71639  0.40135  1.0000
  C   C30       1.0  0.49509  0.67692  0.49571  1.0000
  C   C31       1.0  0.00612  0.51749  0.83098  1.0000
  C   C32       1.0  0.74730  0.61330  0.81218  1.0000
  C   C33       1.0  0.56912  0.48764  0.91365  1.0000
  C   C34       1.0  0.72387  0.54406  0.74667  1.0000
  C   C35       1.0  0.77436  0.42688  0.87984  1.0000
  C   C36       1.0  0.46368  0.51542  0.82312  1.0000
  C   C37       1.0  0.03923  0.51926  0.32662  1.0000
  C   C38       1.0  0.29941  0.42428  0.40620  1.0000
  C   C39       1.0  0.47120  0.55148  0.37979  1.0000
  C   C40       1.0  0.32799  0.48255  0.27497  1.0000
  C   C41       1.0  0.27338  0.60827  0.28168  1.0000
  C   C42       1.0  0.58350  0.52149  0.31585  1.0000
  C   C43       1.0  0.63957  0.35487  0.15092  1.0000
  C   C44       1.0  0.35630  0.27279  0.24348  1.0000
  C   C45       1.0  0.21779  0.30136  0.11507  1.0000
  C   C46       1.0  0.36133  0.40482  0.19182  1.0000
  C   C47       1.0  0.40702  0.40445  0.06301  1.0000
  C   C48       1.0  0.09494  0.36782  0.14532  1.0000
  C   C49       1.0  0.02844  0.17687  0.49284  1.0000
  C   C50       1.0  0.31483  0.19730  0.39973  1.0000
  C   C51       1.0  0.46002  0.09277  0.53074  1.0000
  C   C52       1.0  0.29845  0.26683  0.47126  1.0000
  C   C53       1.0  0.25732  0.13323  0.58430  1.0000
  C   C54       1.0  0.57274  0.18594  0.49826  1.0000
  C   C55       1.0  0.12025  0.23929  0.06343  1.0000
  C   C56       1.0  0.12997  0.27826  0.04399  1.0000
  C   C57       1.0  0.18877  0.27894  0.09778  1.0000
  C   C58       1.0  0.18085  0.23999  0.11828  1.0000
  C   C59       1.0  0.14584  0.22025  0.10105  1.0000
  C   C60       1.0  0.12473  0.08304  0.69387  1.0000
  C   C61       1.0  0.13621  0.06377  0.67397  1.0000
  C   C62       1.0  0.21641  0.11647  0.62269  1.0000
  C   C63       1.0  0.20521  0.13705  0.64132  1.0000
  C   C64       1.0  0.15876  0.12023  0.67696  1.0000
  C   C65       1.0  0.16884  0.72091  0.21982  1.0000
  C   C66       1.0  0.18299  0.70317  0.25819  1.0000
  C   C67       1.0  0.24333  0.64770  0.25910  1.0000
  C   C68       1.0  0.23163  0.66445  0.22067  1.0000
  C   C69       1.0  0.19358  0.70105  0.20112  1.0000
  C   C70       1.0  0.82076  0.73661  0.36152  1.0000
  C   C71       1.0  0.83789  0.77522  0.34259  1.0000
  C   C72       1.0  0.89620  0.77341  0.28837  1.0000
  C   C73       1.0  0.87888  0.73490  0.30624  1.0000
  C   C74       1.0  0.84161  0.71661  0.34277  1.0000
  C   C75       1.0  0.80384  0.38712  0.89764  1.0000
  C   C76       1.0  0.82049  0.36708  0.93586  1.0000
  C   C77       1.0  0.87248  0.31315  0.93232  1.0000
  C   C78       1.0  0.85779  0.33217  0.89396  1.0000
  C   C79       1.0  0.82259  0.36915  0.87672  1.0000
  C   C80       1.0  0.85896  0.96097  0.75497  1.0000
  C   C81       1.0  0.83422  0.92288  0.77227  1.0000
  C   C82       1.0  0.80088  0.92692  0.71414  1.0000
  C   C83       1.0  0.82467  0.96508  0.69581  1.0000
  C   C84       1.0  0.85295  0.98204  0.71631  1.0000
  C   C85       1.0  0.43975  0.42799  0.02371  1.0000
  C   C86       1.0  0.45924  0.41140  0.00160  1.0000
  C   C87       1.0  0.52505  0.46837  0.95174  1.0000
  C   C88       1.0  0.50464  0.48649  0.97239  1.0000
  C   C89       1.0  0.46175  0.46615  0.00849  1.0000
  C   C90       1.0  0.49421  0.05339  0.54830  1.0000
  C   C91       1.0  0.50942  0.03312  0.58662  1.0000
  C   C92       1.0  0.56857  0.97997  0.58272  1.0000
  C   C93       1.0  0.55508  0.99917  0.54430  1.0000
  C   C94       1.0  0.51723  0.03586  0.52719  1.0000
  C   C95       1.0  0.59462  0.60314  0.43873  1.0000
  C   C96       1.0  0.56818  0.56511  0.45684  1.0000
  C   C97       1.0  0.51182  0.56957  0.40023  1.0000
  C   C98       1.0  0.53913  0.60742  0.38114  1.0000
  C   C99       1.0  0.58002  0.62403  0.40039  1.0000
  C   C100      1.0  0.93866  0.97070  0.12707  1.0000
  C   C101      1.0  0.85065  0.99078  0.10622  1.0000
  C   C102      1.0  0.92580  0.04784  0.09609  1.0000
  C   C103      1.0  0.01178  0.02853  0.11908  1.0000
  C   C104      1.0  0.01760  0.98968  0.13480  1.0000
  C   C105      1.0  0.00546  0.09715  0.87409  1.0000
  C   C106      1.0  0.97389  0.07877  0.91157  1.0000
  C   C107      1.0  0.96989  0.13562  0.91321  1.0000
  C   C108      1.0  0.00022  0.15550  0.87553  1.0000
  C   C109      1.0  0.01708  0.13607  0.85586  1.0000
  C   C110      1.0  0.99524  0.86913  0.02718  1.0000
  C   C111      1.0  0.09770  0.87754  0.01020  1.0000
  C   C112      1.0  0.02119  0.90755  0.95059  1.0000
  C   C113      1.0  0.91816  0.89603  0.96655  1.0000
  C   C114      1.0  0.90529  0.87748  0.00497  1.0000
  C   C115      1.0  0.75869  0.73091  0.74970  1.0000
  C   C116      1.0  0.66678  0.71269  0.77095  1.0000
  C   C117      1.0  0.75625  0.65401  0.79627  1.0000
  C   C118      1.0  0.85228  0.67193  0.77817  1.0000
  C   C119      1.0  0.85269  0.71019  0.75458  1.0000
  C   C120      1.0  0.77711  0.81952  0.55126  1.0000
  C   C121      1.0  0.86905  0.79997  0.55034  1.0000
  C   C122      1.0  0.78135  0.77829  0.51422  1.0000
  C   C123      1.0  0.69115  0.80027  0.51133  1.0000
  C   C124      1.0  0.68919  0.82086  0.53007  1.0000
  C   C125      1.0  0.72945  0.59238  0.62965  1.0000
  C   C126      1.0  0.73568  0.61327  0.64788  1.0000
  C   C127      1.0  0.71705  0.55906  0.70661  1.0000
  C   C128      1.0  0.70514  0.53694  0.68978  1.0000
  C   C129      1.0  0.71130  0.55386  0.65095  1.0000
  C   C130      1.0  0.29500  0.30646  0.46088  1.0000
  C   C131      1.0  0.20705  0.32803  0.44138  1.0000
  C   C132      1.0  0.29399  0.38366  0.43041  1.0000
  C   C133      1.0  0.38087  0.36289  0.45188  1.0000
  C   C134      1.0  0.38072  0.32406  0.46737  1.0000
  C   C135      1.0  0.35231  0.42590  0.21219  1.0000
  C   C136      1.0  0.34775  0.46504  0.19450  1.0000
  C   C137      1.0  0.34142  0.46360  0.25276  1.0000
  C   C138      1.0  0.34633  0.42465  0.27117  1.0000
  C   C139      1.0  0.35191  0.40607  0.25099  1.0000
  C   C140      1.0  0.32447  0.20897  0.36005  1.0000
  C   C141      1.0  0.23472  0.22201  0.33746  1.0000
  C   C142      1.0  0.34656  0.24595  0.28318  1.0000
  C   C143      1.0  0.43771  0.23118  0.30476  1.0000
  C   C144      1.0  0.42621  0.21233  0.34327  1.0000
  C   C145      1.0  0.32419  0.18932  0.97870  1.0000
  C   C146      1.0  0.38544  0.15840  0.98402  1.0000
  C   C147      1.0  0.54622  0.18742  0.98677  1.0000
  C   C148      1.0  0.48826  0.21938  0.98043  1.0000
  C   C149      1.0  0.37702  0.22035  0.97606  1.0000
  C   C150      1.0  0.43439  0.03007  0.82177  1.0000
  C   C151      1.0  0.49434  0.03967  0.78904  1.0000
  C   C152      1.0  0.65767  0.03880  0.81808  1.0000
  C   C153      1.0  0.60041  0.03079  0.85072  1.0000
  C   C154      1.0  0.48890  0.02691  0.85234  1.0000
  C   C155      1.0  0.35087  0.85777  0.16361  1.0000
  C   C156      1.0  0.41142  0.87994  0.13122  1.0000
  C   C157      1.0  0.57345  0.85013  0.16065  1.0000
  C   C158      1.0  0.51631  0.82824  0.19402  1.0000
  C   C159      1.0  0.40482  0.83237  0.19547  1.0000
  C   C160      1.0  0.36787  0.84819  0.66306  1.0000
  C   C161      1.0  0.31019  0.82441  0.65482  1.0000
  C   C162      1.0  0.14672  0.85498  0.65446  1.0000
  C   C163      1.0  0.20122  0.87901  0.66330  1.0000
  C   C164      1.0  0.31218  0.87524  0.66801  1.0000
  C   C165      1.0  0.37768  0.67661  0.49664  1.0000
  C   C166      1.0  0.32021  0.68701  0.46444  1.0000
  C   C167      1.0  0.15722  0.66594  0.49972  1.0000
  C   C168      1.0  0.21166  0.65602  0.53239  1.0000
  C   C169      1.0  0.32218  0.66096  0.53078  1.0000
  C   C170      1.0  0.34673  0.51256  0.82180  1.0000
  C   C171      1.0  0.28912  0.48509  0.85237  1.0000
  C   C172      1.0  0.12328  0.51482  0.82662  1.0000
  C   C173      1.0  0.17801  0.54180  0.79482  1.0000
  C   C174      1.0  0.28989  0.54093  0.79284  1.0000
  C   C175      1.0  0.70083  0.52509  0.31083  1.0000
  C   C176      1.0  0.75510  0.55230  0.31508  1.0000
  C   C177      1.0  0.92323  0.52241  0.31882  1.0000
  C   C178      1.0  0.87209  0.49575  0.31280  1.0000
  C   C179      1.0  0.76078  0.49687  0.30942  1.0000
  C   C180      1.0  0.97835  0.37378  0.14123  1.0000
  C   C181      1.0  0.92414  0.36581  0.11674  1.0000
  C   C182      1.0  0.75569  0.36378  0.14645  1.0000
  C   C183      1.0  0.80667  0.37343  0.17037  1.0000
  C   C184      1.0  0.91808  0.37805  0.16788  1.0000
  C   C185      1.0  0.68969  0.18705  0.50055  1.0000
  C   C186      1.0  0.74998  0.21151  0.46903  1.0000
  C   C187      1.0  0.91175  0.18011  0.49676  1.0000
  C   C188      1.0  0.85471  0.15563  0.52926  1.0000
  C   C189      1.0  0.74329  0.15939  0.53116  1.0000
  H   H1        1.0  0.14019  0.19021  0.11698  1.0000
  H   H2        1.0  0.11101  0.29410  0.01495  1.0000
  H   H3        1.0  0.19993  0.22499  0.14736  1.0000
  H   H4        1.0  0.15249  0.13587  0.69161  1.0000
  H   H5        1.0  0.11090  0.03505  0.68595  1.0000
  H   H6        1.0  0.23138  0.16574  0.62850  1.0000
  H   H7        1.0  0.18461  0.71385  0.17146  1.0000
  H   H8        1.0  0.16495  0.71743  0.27372  1.0000
  H   H9        1.0  0.24955  0.64929  0.20601  1.0000
  H   H10       1.0  0.82983  0.68675  0.35641  1.0000
  H   H11       1.0  0.82440  0.79147  0.35636  1.0000
  H   H12       1.0  0.89413  0.71898  0.29218  1.0000
  H   H13       1.0  0.81176  0.38378  0.84707  1.0000
  H   H14       1.0  0.80715  0.37984  0.95304  1.0000
  H   H15       1.0  0.87139  0.31849  0.87763  1.0000
  H   H16       1.0  0.87122  0.01153  0.70186  1.0000
  H   H17       1.0  0.83657  0.90576  0.80207  1.0000
  H   H18       1.0  0.82187  0.98165  0.66594  1.0000
  H   H19       1.0  0.44857  0.47997  0.02470  1.0000
  H   H20       1.0  0.44319  0.38215  0.01200  1.0000
  H   H21       1.0  0.52231  0.51579  0.96097  1.0000
  H   H22       1.0  0.50737  0.05059  0.49749  1.0000
  H   H23       1.0  0.49278  0.04550  0.60398  1.0000
  H   H24       1.0  0.57231  0.98591  0.52776  1.0000
  H   H25       1.0  0.59940  0.65342  0.38519  1.0000
  H   H26       1.0  0.57732  0.54810  0.48643  1.0000
  H   H27       1.0  0.52857  0.62419  0.35158  1.0000
  H   H28       1.0  0.08659  0.97494  0.15091  1.0000
  H   H29       1.0  0.78695  0.97694  0.10038  1.0000
  H   H30       1.0  0.07651  0.04332  0.12313  1.0000
  H   H31       1.0  0.04150  0.15120  0.82691  1.0000
  H   H32       1.0  0.96248  0.04890  0.92667  1.0000
  H   H33       1.0  0.01081  0.18540  0.86159  1.0000
  H   H34       1.0  0.82505  0.87147  0.01723  1.0000
  H   H35       1.0  0.16893  0.87154  0.02658  1.0000
  H   H36       1.0  0.84743  0.90426  0.94969  1.0000
  H   H37       1.0  0.92558  0.72340  0.73899  1.0000
  H   H38       1.0  0.59299  0.72798  0.76803  1.0000
  H   H39       1.0  0.92482  0.65631  0.78020  1.0000
  H   H40       1.0  0.61654  0.83560  0.53006  1.0000
  H   H41       1.0  0.93954  0.79876  0.56560  1.0000
  H   H42       1.0  0.62033  0.79937  0.49722  1.0000
  H   H43       1.0  0.70531  0.53689  0.63779  1.0000
  H   H44       1.0  0.74684  0.64316  0.63273  1.0000
  H   H45       1.0  0.69467  0.50710  0.70629  1.0000
  H   H46       1.0  0.44983  0.30817  0.48245  1.0000
  H   H47       1.0  0.13828  0.31534  0.43655  1.0000
  H   H48       1.0  0.45025  0.37654  0.45503  1.0000
  H   H49       1.0  0.35518  0.37593  0.26605  1.0000
  H   H50       1.0  0.34897  0.48138  0.16460  1.0000
  H   H51       1.0  0.34562  0.40844  0.30112  1.0000
  H   H52       1.0  0.49761  0.20277  0.35977  1.0000
  H   H53       1.0  0.15483  0.21951  0.34942  1.0000
  H   H54       1.0  0.51725  0.23568  0.29208  1.0000
  H   H55       1.0  0.33170  0.24437  0.97277  1.0000
  H   H56       1.0  0.34694  0.13385  0.98653  1.0000
  H   H57       1.0  0.52807  0.24298  0.97957  1.0000
  H   H58       1.0  0.44623  0.01957  0.87813  1.0000
  H   H59       1.0  0.45524  0.04295  0.76463  1.0000
  H   H60       1.0  0.64217  0.02600  0.87525  1.0000
  H   H61       1.0  0.36028  0.81419  0.22069  1.0000
  H   H62       1.0  0.37216  0.89955  0.10602  1.0000
  H   H63       1.0  0.55695  0.80773  0.21844  1.0000
  H   H64       1.0  0.35498  0.89451  0.67368  1.0000
  H   H65       1.0  0.35113  0.80341  0.65058  1.0000
  H   H66       1.0  0.15876  0.90048  0.66635  1.0000
  H   H67       1.0  0.36452  0.65223  0.55623  1.0000
  H   H68       1.0  0.36123  0.69840  0.43774  1.0000
  H   H69       1.0  0.16953  0.64405  0.55894  1.0000
  H   H70       1.0  0.33219  0.56295  0.76919  1.0000
  H   H71       1.0  0.33101  0.46326  0.87558  1.0000
  H   H72       1.0  0.13526  0.56431  0.77248  1.0000
  H   H73       1.0  0.72107  0.47495  0.30704  1.0000
  H   H74       1.0  0.71067  0.57397  0.31718  1.0000
  H   H75       1.0  0.91681  0.47322  0.31243  1.0000
  H   H76       1.0  0.95772  0.38309  0.18793  1.0000
  H   H77       1.0  0.96868  0.36137  0.09645  1.0000
  H   H78       1.0  0.76171  0.37590  0.19178  1.0000
  H   H79       1.0  0.69861  0.13952  0.55559  1.0000
  H   H80       1.0  0.71073  0.23292  0.44479  1.0000
  H   H81       1.0  0.89546  0.13361  0.55267  1.0000
  N   N1        1.0  0.16262  0.29680  0.06145  1.0000
  N   N2        1.0  0.18066  0.08076  0.63939  1.0000
  N   N3        1.0  0.21833  0.66746  0.27660  1.0000
  N   N4        1.0  0.87506  0.79250  0.30687  1.0000
  N   N5        1.0  0.85287  0.33107  0.95201  1.0000
  N   N6        1.0  0.80599  0.90702  0.75170  1.0000
  N   N7        1.0  0.50083  0.43166  0.96684  1.0000
  N   N8        1.0  0.54495  0.99742  0.60262  1.0000
  N   N9        1.0  0.52759  0.54947  0.43741  1.0000
  N   N10       1.0  0.84718  0.02827  0.09114  1.0000
  N   N11       1.0  0.95706  0.09814  0.92971  1.0000
  N   N12       1.0  0.10788  0.89751  0.97273  1.0000
  N   N13       1.0  0.66690  0.67490  0.79276  1.0000
  N   N14       1.0  0.86786  0.77956  0.53286  1.0000
  N   N15       1.0  0.73046  0.59631  0.68514  1.0000
  N   N16       1.0  0.20928  0.36551  0.42654  1.0000
  N   N17       1.0  0.34262  0.48280  0.21500  1.0000
  N   N18       1.0  0.24792  0.24022  0.30004  1.0000
  N   N19       1.0  0.49350  0.15826  0.98773  1.0000
  N   N20       1.0  0.60321  0.04334  0.78813  1.0000
  N   N21       1.0  0.51970  0.87572  0.13057  1.0000
  N   N22       1.0  0.20221  0.82814  0.65106  1.0000
  N   N23       1.0  0.21244  0.68121  0.46676  1.0000
  N   N24       1.0  0.18011  0.48721  0.85432  1.0000
  N   N25       1.0  0.86351  0.55004  0.31946  1.0000
  N   N26       1.0  0.81567  0.36079  0.12006  1.0000
  N   N27       1.0  0.85815  0.20761  0.46799  1.0000
  O   O1        1.0  0.71762  0.15932  0.98923  1.0000
  O   O2        1.0  0.85231  0.10244  0.04662  1.0000
  O   O3        1.0  0.01097  0.10840  0.06976  1.0000
  O   O4        1.0  0.70698  0.20340  0.00732  1.0000
  O   O5        1.0  0.93628  0.17974  0.00225  1.0000
  O   O6        1.0  0.05959  0.18401  0.06176  1.0000
  O   O7        1.0  0.91025  0.13150  0.96977  1.0000
  O   O8        1.0  0.97843  0.18766  0.92568  1.0000
  O   O9        1.0  0.88109  0.25559  0.98851  1.0000
  O   O10       1.0  0.93610  0.25596  0.93495  1.0000
  O   O11       1.0  0.16797  0.15866  0.01405  1.0000
  O   O12       1.0  0.14369  0.21226  0.95891  1.0000
  O   O13       1.0  0.09590  0.23641  0.00752  1.0000
  O   O14       1.0  0.25889  0.02161  0.85143  1.0000
  O   O15       1.0  0.10886  0.96174  0.90314  1.0000
  O   O16       1.0  0.95649  0.94144  0.88877  1.0000
  O   O17       1.0  0.27620  0.01152  0.80219  1.0000
  O   O18       1.0  0.04399  0.01238  0.82525  1.0000
  O   O19       1.0  0.91747  0.95891  0.81133  1.0000
  O   O20       1.0  0.05840  0.03985  0.87741  1.0000
  O   O21       1.0  0.01516  0.08789  0.82028  1.0000
  O   O22       1.0  0.10588  0.02654  0.75095  1.0000
  O   O23       1.0  0.05442  0.08061  0.75040  1.0000
  O   O24       1.0  0.81000  0.00068  0.84392  1.0000
  O   O25       1.0  0.84076  0.05864  0.79435  1.0000
  O   O26       1.0  0.87662  0.01506  0.76240  1.0000
  O   O27       1.0  0.74409  0.87245  0.12974  1.0000
  O   O28       1.0  0.91044  0.87633  0.07563  1.0000
  O   O29       1.0  0.05401  0.83658  0.08980  1.0000
  O   O30       1.0  0.73763  0.81441  0.18032  1.0000
  O   O31       1.0  0.96556  0.84120  0.15590  1.0000
  O   O32       1.0  0.09922  0.77520  0.16566  1.0000
  O   O33       1.0  0.92232  0.92210  0.11223  1.0000
  O   O34       1.0  0.98327  0.90642  0.16986  1.0000
  O   O35       1.0  0.91179  0.77718  0.22921  1.0000
  O   O36       1.0  0.96091  0.82833  0.23363  1.0000
  O   O37       1.0  0.19885  0.84916  0.13572  1.0000
  O   O38       1.0  0.16812  0.85463  0.18751  1.0000
  O   O39       1.0  0.14138  0.78081  0.21551  1.0000
  O   O40       1.0  0.97915  0.82819  0.65415  1.0000
  O   O41       1.0  0.83153  0.81710  0.60728  1.0000
  O   O42       1.0  0.69483  0.85687  0.57595  1.0000
  O   O43       1.0  0.98117  0.88982  0.63785  1.0000
  O   O44       1.0  0.75649  0.85903  0.64604  1.0000
  O   O45       1.0  0.63670  0.92314  0.58510  1.0000
  O   O46       1.0  0.80353  0.77744  0.68803  1.0000
  O   O47       1.0  0.71026  0.79590  0.72464  1.0000
  O   O48       1.0  0.80637  0.92372  0.65789  1.0000
  O   O49       1.0  0.73860  0.87367  0.71058  1.0000
  O   O50       1.0  0.52972  0.85092  0.63046  1.0000
  O   O51       1.0  0.54235  0.85131  0.68535  1.0000
  O   O52       1.0  0.59184  0.92238  0.63882  1.0000
  O   O53       1.0  0.98484  0.66311  0.52733  1.0000
  O   O54       1.0  0.79299  0.64456  0.57434  1.0000
  O   O55       1.0  0.70955  0.59898  0.56826  1.0000
  O   O56       1.0  0.99320  0.66137  0.47317  1.0000
  O   O57       1.0  0.76651  0.66979  0.49521  1.0000
  O   O58       1.0  0.66198  0.60419  0.49333  1.0000
  O   O59       1.0  0.84283  0.72026  0.52258  1.0000
  O   O60       1.0  0.70908  0.74830  0.48125  1.0000
  O   O61       1.0  0.82570  0.68169  0.42021  1.0000
  O   O62       1.0  0.74602  0.73353  0.41761  1.0000
  O   O63       1.0  0.54309  0.64729  0.52127  1.0000
  O   O64       1.0  0.54893  0.70421  0.46820  1.0000
  O   O65       1.0  0.61531  0.65845  0.44342  1.0000
  O   O66       1.0  0.94913  0.53733  0.80154  1.0000
  O   O67       1.0  0.82441  0.59629  0.80418  1.0000
  O   O68       1.0  0.65689  0.59600  0.82805  1.0000
  O   O69       1.0  0.96087  0.50175  0.86423  1.0000
  O   O70       1.0  0.73103  0.52060  0.83717  1.0000
  O   O71       1.0  0.59256  0.52333  0.89625  1.0000
  O   O72       1.0  0.75826  0.56688  0.75756  1.0000
  O   O73       1.0  0.70063  0.50921  0.77064  1.0000
  O   O74       1.0  0.79496  0.44539  0.89728  1.0000
  O   O75       1.0  0.73388  0.44346  0.84646  1.0000
  O   O76       1.0  0.50098  0.54448  0.82419  1.0000
  O   O77       1.0  0.52704  0.48788  0.82714  1.0000
  O   O78       1.0  0.57961  0.46886  0.89587  1.0000
  O   O79       1.0  0.09760  0.49570  0.32110  1.0000
  O   O80       1.0  0.22007  0.44003  0.38352  1.0000
  O   O81       1.0  0.38913  0.44248  0.40218  1.0000
  O   O82       1.0  0.08180  0.53844  0.34069  1.0000
  O   O83       1.0  0.31369  0.51520  0.33618  1.0000
  O   O84       1.0  0.44024  0.51646  0.39714  1.0000
  O   O85       1.0  0.29032  0.46266  0.30889  1.0000
  O   O86       1.0  0.35181  0.51801  0.26150  1.0000
  O   O87       1.0  0.25509  0.59242  0.31761  1.0000
  O   O88       1.0  0.31010  0.58904  0.26597  1.0000
  O   O89       1.0  0.54641  0.49411  0.34724  1.0000
  O   O90       1.0  0.51905  0.54666  0.29137  1.0000
  O   O91       1.0  0.47331  0.56973  0.34348  1.0000
  O   O92       1.0  0.58390  0.35572  0.17778  1.0000
  O   O93       1.0  0.44294  0.29350  0.23078  1.0000
  O   O94       1.0  0.27083  0.28041  0.22320  1.0000
  O   O95       1.0  0.59394  0.34504  0.12882  1.0000
  O   O96       1.0  0.36415  0.34701  0.15507  1.0000
  O   O97       1.0  0.25237  0.28560  0.14916  1.0000
  O   O98       1.0  0.39385  0.37016  0.21037  1.0000
  O   O99       1.0  0.33731  0.41995  0.15654  1.0000
  O   O100      1.0  0.41832  0.36821  0.07764  1.0000
  O   O101      1.0  0.37658  0.41949  0.08349  1.0000
  O   O102      1.0  0.12653  0.33402  0.16852  1.0000
  O   O103      1.0  0.16397  0.39469  0.12528  1.0000
  O   O104      1.0  0.19979  0.33736  0.09731  1.0000
  O   O105      1.0  0.08100  0.20591  0.46754  1.0000
  O   O106      1.0  0.24118  0.21302  0.41080  1.0000
  O   O107      1.0  0.38828  0.17536  0.42216  1.0000
  O   O108      1.0  0.07774  0.14541  0.51411  1.0000
  O   O109      1.0  0.30335  0.17597  0.49103  1.0000
  O   O110      1.0  0.43001  0.11054  0.49609  1.0000
  O   O111      1.0  0.25564  0.25716  0.44867  1.0000
  O   O112      1.0  0.34072  0.24213  0.50260  1.0000
  O   O113      1.0  0.24525  0.11435  0.56676  1.0000
  O   O114      1.0  0.29563  0.16739  0.56724  1.0000
  O   O115      1.0  0.53608  0.18268  0.47073  1.0000
  O   O116      1.0  0.50819  0.18421  0.52475  1.0000
  O   O117      1.0  0.46645  0.11100  0.54909  1.0000
  Zn  Zn1       1.0  0.03876  0.15806  0.03614  1.0000
  Zn  Zn2       1.0  0.99493  0.20828  0.95675  1.0000
  Zn  Zn3       1.0  0.85097  0.20620  0.01583  1.0000
  Zn  Zn4       1.0  0.85642  0.14495  0.00223  1.0000
  Zn  Zn5       1.0  0.93668  0.97946  0.84173  1.0000
  Zn  Zn6       1.0  0.99172  0.05865  0.79794  1.0000
  Zn  Zn7       1.0  0.13472  0.99991  0.79960  1.0000
  Zn  Zn8       1.0  0.11618  0.00860  0.86280  1.0000
  Zn  Zn9       1.0  0.07427  0.82603  0.13742  1.0000
  Zn  Zn10      1.0  0.01745  0.85689  0.18593  1.0000
  Zn  Zn11      1.0  0.88055  0.80189  0.18057  1.0000
  Zn  Zn12      1.0  0.88925  0.87615  0.11964  1.0000
  Zn  Zn13      1.0  0.65942  0.87188  0.61038  1.0000
  Zn  Zn14      1.0  0.69020  0.84568  0.69001  1.0000
  Zn  Zn15      1.0  0.83640  0.89992  0.63132  1.0000
  Zn  Zn16      1.0  0.83807  0.82225  0.64844  1.0000
  Zn  Zn17      1.0  0.67676  0.63067  0.51897  1.0000
  Zn  Zn18      1.0  0.69565  0.71250  0.46638  1.0000
  Zn  Zn19      1.0  0.84945  0.65509  0.46931  1.0000
  Zn  Zn20      1.0  0.84356  0.67399  0.52803  1.0000
  Zn  Zn21      1.0  0.62551  0.54589  0.84589  1.0000
  Zn  Zn22      1.0  0.67629  0.49093  0.82120  1.0000
  Zn  Zn23      1.0  0.81483  0.49560  0.87625  1.0000
  Zn  Zn24      1.0  0.81292  0.55372  0.80193  1.0000
  Zn  Zn25      1.0  0.41702  0.49248  0.36983  1.0000
  Zn  Zn26      1.0  0.37032  0.54161  0.29005  1.0000
  Zn  Zn27      1.0  0.22694  0.54304  0.34776  1.0000
  Zn  Zn28      1.0  0.23286  0.48015  0.33759  1.0000
  Zn  Zn29      1.0  0.25847  0.31299  0.17352  1.0000
  Zn  Zn30      1.0  0.31339  0.39395  0.13073  1.0000
  Zn  Zn31      1.0  0.44881  0.33699  0.12583  1.0000
  Zn  Zn32      1.0  0.44414  0.34129  0.19185  1.0000
  Zn  Zn33      1.0  0.40922  0.16171  0.47064  1.0000
  Zn  Zn34      1.0  0.35985  0.19156  0.52058  1.0000
  Zn  Zn35      1.0  0.22289  0.13535  0.51730  1.0000
  Zn  Zn36      1.0  0.22417  0.21115  0.45581  1.0000
